128
Coordinates from ORCA-job CMC_B3LYP_STO-3G.orcainp
  C   16.74052852301113    -13.66094673115169      1.99073773906326
  C   15.23624725521397    -13.35710156381534      1.72400521728223
  O   14.68620419777955    -12.23650924065202      1.63807156457511
  O   14.53492163898580    -14.60332595237588      1.58412897992074
  C   13.08901854161232    -14.36433397252244      1.35958321792844
  C   12.26452650314801    -14.87779893783115      2.59938961601631
  O   10.88589018129650    -14.33840788862400      2.43055093004665
  C   10.06269365606192    -14.66791548200719      3.65910017299448
  O   8.73643832501178    -14.11592384608594      3.45751549635352
  C   8.70208119856847    -12.67590278982494      3.82047804683754
  C   9.33831969883111    -11.75280447124625      2.70235445235982
  O   10.77131025767152    -11.82077482014050      2.49046839041390
  C   9.07457977094717    -10.24069992446010      3.04840691077113
  N   9.82474598830105     -9.51245106557111      1.93164313424079
  C   7.50072492254878    -10.01037259133368      3.09727385456256
  O   7.02727407747742     -8.69309130492828      3.54574099003926
  C   7.56131851528290     -7.61089035168280      2.69000437412727
  C   7.28962878485774     -7.77194332744462      1.14095972242066
  O   7.86716861838539     -8.87700631643397      0.39278678270789
  C   7.81112404445639     -6.44770247714300      0.42999812452128
  N   7.70854436137252     -6.73942260377432     -1.06493890332558
  C   7.02979117299619     -5.21184680079422      0.99058948819092
  O   7.55483594652637     -3.88155903065785      0.54893820058955
  C   7.75889135567556     -3.82487433018769     -0.93428711165580
  C   6.47450167386199     -3.02528188655798     -1.48625986497312
  O   5.67593664341554     -2.65397967195351     -0.31570897979203
  C   6.74528406896360     -1.66149739469775     -2.31231665114643
  N   5.96857199877059     -0.58014450672779     -1.56623683813287
  C   8.27690513216047     -1.22351660640793     -2.38549479947734
  O   8.62392703133902     -0.50968121393634     -3.62825995684757
  C   7.77720943428706      0.70035616260425     -3.75114110953238
  C   7.94673671847458      1.74206549041424     -2.57763757740131
  O   7.57986626360733      1.37693256854484     -1.22006848098035
  C   7.07229576003967      3.01263130295014     -2.97066665746067
  N   6.98807993955431      3.86594728555778     -1.70944334516069
  C   7.67361899623637      3.64445206886195     -4.28201777893641
  O   7.04646251683190      4.87590276187565     -4.72306445191748
  O   7.48809145474084      2.65654775280424     -5.39455235762094
  C   8.23041198851028      1.41178036307689     -5.10565306955798
  C   7.93828292020708      0.49724578937737     -6.36483410599926
  O   8.66211575987257     -0.79435633418701     -6.29924891031076
  C   7.84383155684118     -1.80282129790988     -5.68325169831985
  C   8.70615262099352     -3.07438466173092     -5.42045597585072
  O   6.62451799964589     -1.65579209757380     -5.42956863768680
  O   9.17150211508666     -2.39326706791262     -2.46569039677048
  C   9.12196133957418     -3.06729749563226     -1.14868245333092
  C   10.39923628095923     -3.99499822968030     -1.20115087481225
  O   11.49544293483268     -3.23856028952765     -1.81300284573461
  O   7.26112642464965     -5.07601523245151      2.44332235389717
  C   6.79533715222495     -6.28841284149480      3.15448377449130
  C   7.06233203105222     -5.94020346234550      4.67437430124517
  O   6.63360770555567     -7.03229914632165      5.57577780669140
  C   7.76199938644762     -7.85566048225708      5.93070345348745
  C   7.25329430570046     -9.12037069906684      6.68231815246820
  O   8.94757732162455     -7.55978007359366      5.66139192891694
  O   6.95517454017422    -10.85720802719823      4.18749405978864
  C   7.16761701526078    -12.29222500782221      3.87956676572438
  C   6.34531669510188    -12.99834610719467      5.02415228194488
  O   5.05362181036356    -12.31776675915218      5.16672738071764
  C   9.92063990646101    -16.23070824776678      3.78268010574990
  N   9.01587705454624    -16.60561406080237      4.94970465909118
  C   11.35464039145841    -16.89213915780965      3.92137837626613
  O   11.23074443006239    -18.33696156578757      4.12064419106362
  C   12.25394921787452    -16.46894336001895      2.68407733530445
  O   13.60095960072335    -17.03463974039403      2.72913012121261
  H   17.34322414105187    -12.76912400732984      1.76166168318118
  H   17.07463132364519    -14.50514032705502      1.36779095157032
  H   16.88399338797309    -13.92719667078979      3.05146552524793
  H   12.78468742735238    -14.91183063497979      0.44342314141048
  H   12.93297922730715    -13.27116922211199      1.22218486014122
  H   12.72146584989276    -14.46942084290237      3.53299063593230
  H   10.57855502804469    -14.24340009164137      4.56260879468349
  H   9.19130205764478    -12.49904796169239      4.80574914948884
  H   8.77816246381510    -11.98917794058467      1.76130336324696
  H   10.91995087898549    -12.85541806897666      2.33724121678504
  H   9.49989271864203     -9.99691839522130      4.04332202134160
  H   10.57665278467386    -10.26320046440070      1.73432935696161
  H   10.34762924703622     -8.70713766214316      2.37154896154040
  H   7.06453924943640    -10.28865709342295      2.09739220015053
  H   8.65020587397179     -7.46252910583698      2.87224043471031
  H   6.18334310142982     -7.80905091229377      1.00189284617812
  H   8.78149189551097     -9.10185125856153      0.91847619901757
  H   8.88488298329130     -6.31132891835037      0.67088840912646
  H   6.65380063309881     -6.80047644697415     -1.21864846158656
  H   7.94987768351243     -7.80581491273440     -0.94778500007697
  H   5.93436375379252     -5.29598073111617      0.74326775114677
  H   7.81522326774885     -4.86138882759859     -1.35558998356677
  H   5.88886052825217     -3.70694885555650     -2.14177501803340
  H   6.35893385927950     -2.99456731088920      0.42436790841139
  H   6.38792050553636     -1.79233562637325     -3.35582190606791
  H   5.67748193881895     -1.21484060405471     -0.70213547052156
  H   5.07486689757481     -0.42414407671539     -2.10790672624173
  H   8.51698249566282     -0.59197027596674     -1.48424681804892
  H   6.70336240111614      0.42405702029738     -3.84880696334578
  H   9.01499059456156      2.06469955509617     -2.56876054342386
  H   6.80118569203119      0.62670186045900     -1.33928808228066
  H   6.04258429510875      2.67159287852089     -3.20785494895574
  H   7.96906736933623      4.28449770779242     -1.64322637016455
  H   7.09428179439327      3.00435083149903     -1.03405859884928
  H   8.75973165497317      3.88244874420811     -4.13532093503964
  H   6.05391025808923      4.61522546156354     -4.74553706240571
  H   9.32888835706582      1.60318494218099     -5.03372052018744
  H   8.29148529660201      1.01517829772928     -7.28009550035616
  H   6.84466250870641      0.31460969951939     -6.43493740349140
  H   9.61792185454383     -3.05430097004999     -6.03540854330158
  H   8.12174619108641     -3.97896928546160     -5.64903330130792
  H   8.98289680419520     -3.07828564332469     -4.34557606833768
  H   9.24000637579847     -2.31211472393880     -0.33589495943685
  H   10.14634739675378     -4.91458597342132     -1.78292311827674
  H   10.68900051439926     -4.30854016239614     -0.17617203817052
  H   10.92344070754198     -2.63614871222606     -2.43416489965879
  H   5.70283021160734     -6.45350979826947      2.99384442817746
  H   6.47636254667440     -5.03777924648902      4.94515600142592
  H   8.14720174360272     -5.74564308829508      4.81710603349341
  H   6.28913149520981     -8.91601773821498      7.17115677872526
  H   7.99392735787598     -9.43514639962135      7.43310268840501
  H   7.12321956909965     -9.92620463234474      5.92960661938419
  H   6.71891820139190    -12.53599061838016      2.88773831531860
  H   6.94557246838016    -12.96400685067606      5.96566541349171
  H   6.17080293406529    -14.06400913726186      4.76760679607687
  H   5.36133393474371    -11.35861238716456      4.93102354395016
  H   9.44437419692999    -16.60918952808454      2.85440604514255
  H   9.51299291112570    -16.19612003100800      5.79772037961397
  H   9.24565990050364    -17.64218605414580      5.06255707610472
  H   11.82983126827444    -16.50539427858440      4.85083288901073
  H   10.86799906270859    -18.64906851599206      3.21190226322842
  H   11.79010510189521    -16.86298195664860      1.75279281492117
  H   13.97014015250889    -16.64112702005008      3.60333712310081
