130
Coordinates from ORCA-job .\CBC_B3LYP_STO-3G.orcainp
  C   12.08576168757081      5.27084288728212     -2.13958914322678
  C   10.67666289003846      4.77498645174169     -1.69260063165171
  O   10.77941198797557      4.49390898286441     -0.24625891989526
  C   9.56189080096147      3.79850265192406      0.19298616746706
  O   9.93787268887915      3.55033056883550      1.59969140986458
  C   8.98074785032813      2.64555378510159      2.26654956529575
  C   8.60754399649648      1.31656513812951      1.48989339558889
  O   7.97591551324350      1.40490099441564      0.18331959153329
  C   7.64032392301866      0.48904025883538      2.44056176181888
  N   7.19174432591919     -0.67568477090424      1.57069775189377
  C   8.44296362202184      0.12626991818921      3.74619019861195
  O   7.56604498836092     -0.62834040882452      4.63819070053225
  C   8.30875017064638     -1.13412506179690      5.82960087952966
  C   9.12507702249965     -2.44555679438877      5.44893186248063
  C   10.21993077760035     -2.82808291175662      6.50976932064470
  O   8.25704183279312     -3.58925877545448      5.08226284471663
  C   7.23258258089480     -3.87074560457625      6.09516105466896
  O   7.87085436266137     -4.42650877551616      7.33309110683060
  C   7.19040219117727     -5.68213294464662      7.72328332419691
  C   7.18718135727903     -6.79073995776267      6.58528467124518
  O   6.15945487124337     -6.39205016631463      5.59721552343303
  C   6.85658504854317     -8.22819209254459      7.17774692844825
  N   6.99760850810471     -9.36968530942259      6.18408993080105
  C   7.78641446138886     -8.51960011126453      8.43269503982420
  O   7.56921713383297     -9.82333284348935      9.02662108344711
  O   7.52410529777863     -7.50566977176843      9.48817238345795
  C   7.99684898696141     -6.20324978621601      8.99489800893082
  C   7.82713128479247     -5.20041123306444     10.19222772465909
  O   8.64990610491805     -5.63462344314261     11.34845686769208
  C   9.72490722502276     -4.71712104408126     11.58457726695091
  C   10.56075044883119     -5.23283788426851     12.79543692083932
  O   9.92148888542274     -3.68096603394403     10.91054611687010
  C   6.31843652480110     -2.61541079050622      6.42870121936909
  N   5.50064974919309     -2.31281206175862      5.17006767112504
  C   7.17766874548621     -1.37991923480354      6.89846378409879
  C   7.70632007875518     -1.53374047985946      8.35685897898208
  O   8.78641486176100      1.38035125793746      4.47751449271386
  C   9.67903763233071      2.19816933945919      3.62963490633833
  C   10.06577938497569      3.43368817915598      4.53240917719867
  O   11.22958880520429      4.16801736014500      3.98099116471382
  C   12.42397051763235      3.85148672921059      4.70822094998459
  C   13.61095333414205      4.64078110103743      4.07648903124383
  O   12.46224446945734      3.07413889030260      5.68816941183768
  C   8.23770638004385      4.69114637370799     -0.00164871968542
  N   7.01321386018976      3.80342165794823      0.28527718486178
  C   8.14412764025460      5.23753538579565     -1.47624377796968
  C   6.99188343406986      6.28043018692677     -1.62647252201696
  C   9.52696251888592      5.84325762680997     -1.94805834678684
  O   9.46682514536097      6.10779211964259     -3.40482724172553
  C   9.41677413557686      7.55347342085144     -3.68908686288035
  O   8.67308257159846      7.68857971535241     -4.97994297619127
  C   9.46664736500909      7.13915507856727     -6.12465411368525
  C   9.84899617329448      5.61278303933170     -6.03263672025430
  O   10.10596761413202      5.07055298565369     -7.40099479559795
  C   11.43131681868435      5.18094982618011     -7.86603762119197
  C   11.51213748954060      4.56485135142997     -9.29461999101528
  O   12.42452311861244      5.68997762503100     -7.26523328462211
  C   10.69354473901727      8.13031734651998     -6.21383432007301
  O   10.08441432169651      9.47880890726604     -6.09891221669860
  C   11.67675866654688      7.85279672280703     -4.97740402013731
  O   12.14919633376389      6.47234438871038     -4.86117889950057
  C   10.86380616480667      8.24235631011264     -3.67563059269717
  N   10.69418588764615      9.75465842389976     -3.54884976037063
  H   12.80927811470410      4.44603974615868     -2.04967502738114
  H   12.41427318647961      6.09166283257323     -1.48312907516785
  H   12.06942907017604      5.63508997615533     -3.19059970814678
  H   10.40946412930093      3.85003574213062     -2.25773769163854
  H   9.38721574426025      2.82943297105432     -0.35667767027894
  H   8.04234775058156      3.18589677102909      2.53217805638358
  H   9.54100036143251      0.71880646971435      1.37138112064870
  H   7.43152324075538      2.32472444736713      0.23774161299806
  H   6.79430071273898      1.13859001561438      2.75345371427901
  H   6.15348656969715     -0.77489791129132      1.77130794219786
  H   7.20588875152515     -0.12512956734830      0.63450430460360
  H   9.37980855738475     -0.43758099387067      3.48475931844379
  H   9.02342812686017     -0.36040292339607      6.18910593135613
  H   9.65823548831281     -2.21961496220856      4.49871886133138
  H   9.75773204655034     -3.33296994303544      7.36991570815318
  H   10.75484634135863     -1.92748943257865      6.84850157547589
  H   10.94613166035970     -3.51730013499793      6.05237891762790
  H   6.60693594390951     -4.68696148043131      5.63183783058259
  H   6.12868153707356     -5.49595664772993      8.01536525512448
  H   8.20136669069532     -6.82305195970872      6.12189127685525
  H   6.45671768846521     -6.88970307190653      4.75202732035230
  H   5.80305277908209     -8.22206611324921      7.52589870930544
  H   7.95829889262167     -9.23605337548506      5.75031174978792
  H   6.35432942602998     -9.10680434452162      5.38087507847424
  H   8.86172569172949     -8.49576314493449      8.11492499447564
  H   6.55617286836765     -9.82100801053852      9.19047087054075
  H   9.07632175818592     -6.25059270778745      8.71020530490491
  H   6.76675535851432     -5.18431722981213     10.52034054661909
  H   8.14871356188200     -4.18417887274641      9.88095309174032
  H   9.90439382743591     -5.40563000349687     13.66334955386119
  H   11.32647026883228     -4.48753007341227     13.05755101208514
  H   11.05405179333820     -6.18359168103223     12.53467239301482
  H   5.62082049192448     -2.91175157082299      7.23737531147333
  H   6.19134212742638     -1.71964757633274      4.60078343415296
  H   4.82126579987300     -1.56448401568788      5.50244133335075
  H   6.52579708006662     -0.48454303397725      6.86436173331784
  H   8.16852412936253     -2.52170526856022      8.49341908430275
  H   6.86482925192350     -1.44676825646923      9.06140368673253
  H   8.44174658240540     -0.74893662369565      8.59247927637540
  H   10.61083001874723      1.63821387620366      3.37079144323583
  H   10.31760257363160      3.06415481549247      5.55033416501002
  H   9.21957232038384      4.14901344913190      4.58612669492556
  H   13.40151225238805      5.72245152782791      4.10051375530630
  H   13.75207971429822      4.33492675088461      3.02707432337324
  H   14.53161024034518      4.43461927374055      4.64251471841762
  H   8.26754606413595      5.54018920391174      0.71163638257838
  H   6.27433311275589      4.03849018536467     -0.42966051907496
  H   6.59154386651107      4.12066487810493      1.19867881854786
  H   7.93081655880948      4.37334868578851     -2.13568819787462
  H   7.19422863515595      7.17175684368576     -1.01252107013881
  H   6.02549603429941      5.85588689741350     -1.31273801422288
  H   6.90079665118280      6.58722940978781     -2.67907221676913
  H   9.75315400010690      6.76010450746969     -1.36160538448469
  H   8.77153200589151      8.10666703568041     -2.96161751075676
  H   8.79891915290731      7.29704499818880     -7.00080114848760
  H   10.74143810938725      5.55211484428446     -5.35303812350472
  H   8.98730960550285      5.02971159238046     -5.65253954489610
  H   11.16894117825119      3.51773653995984     -9.27086840478540
  H   12.55267456774174      4.60518087395772     -9.64950929789904
  H   10.86537555189927      5.13279535016463     -9.98351188703625
  H   11.23591221944850      8.04478612262013     -7.17973488453693
  H   9.18909253605440      9.17193342378413     -5.65498589354758
  H   12.53607757302600      8.56339668106656     -5.06862324519733
  H   12.41545917893147      6.21511800972655     -5.84426115595645
  H   11.39075534261551      7.86073048900586     -2.78046219339626
  H   10.51708889962520     10.00121565900845     -4.58953480761261
  H   11.69429132465975     10.08782533959600     -3.40622543640117
